      3 'GENROU' 1     3.9000      0.32000E-01  0.54000      0.62000E-01
          2.6400       5.0000       1.8600       1.7800      0.25000
         0.45300      0.19500      0.14500       1.9714       6.9000      /
      5 'GENROU' 1     4.0000      0.32000E-01  0.52000      0.63000E-01
          2.6100       0.0000       1.8100       1.7300      0.24500
         0.51000      0.19000      0.14000       1.7850       7.1400      /
      8 'GENROU' 1     8.4000      0.35000E-01  0.46000      0.70000E-01
          3.4200       0.0000       1.7600       1.5800      0.28500
         0.48500      0.20500      0.15500       1.8429       6.4500      /
     10 'GENROU' 1     4.5000      0.40000E-01  0.50000      0.60000E-01
          2.4500       0.0000       1.7000       1.6500      0.25000
         0.50000      0.19000      0.14000       1.7850       7.1400      /
     12 'GENROU' 1     4.2000      0.32000E-01  0.60000      0.66000E-01
          3.5900       0.0000       1.7600       1.6800      0.22000
         0.40000      0.17500      0.13000       1.9225       7.6900      /
     14 'GENROU' 1     8.2000      0.33000E-01  0.48000      0.55000E-01
          3.8300       0.0000       1.9800       1.8500      0.37500
         0.56700      0.28500      0.22500       1.4800       4.4400      /
     17 'GENROU' 1     3.8000      0.31000E-01  0.49000      0.58000E-01
          2.6300       0.0000       1.6700      0.61000      0.26000
         0.45300      0.20500      0.14500       1.9714       6.9000      /
     29 'GENROU' 1     8.0000      0.50000E-01  0.20000      0.80000E-01
          4.3400       0.0000      0.90000      0.60000      0.25000
         0.60000      0.15000      0.90000E-01   2.2000       11.000      /
     34 'GENROU' 1     4.6000      0.40000E-01  0.37000      0.10000
          2.9500       0.0000       1.8250       1.7800      0.29100
         0.44000      0.25000      0.23900       1.3933       4.1800      /
     35 'GENROU' 1     4.1000      0.33000E-01  0.56000      0.62000E-01
          2.3200       0.0000       2.0700       1.9900      0.28000
         0.49000      0.21500      0.15500       1.8429       6.4500      /
     39 'GENROU' 1     9.8000      0.28000E-01  0.20000      0.16000
          6.4100       0.0000      0.99500      0.56800      0.19500
         0.56800      0.10000      0.89000E-01   2.2400       11.200      /
     42 'GENROU' 1     4.8000      0.37000E-01  0.50000      0.75000E-01
          4.1300       0.0000       1.7000       1.6200      0.25600
         0.41000      0.10000      0.85000E-01   1.8429       6.4500      /
     44 'GENROU' 1     4.7000      0.31000E-01  0.67000      0.61000E-01
          2.8800       0.0000       1.9900       1.9000      0.24500
         0.42000      0.10000      0.85000E-01   1.9057       6.6700      /
     46 'GENROU' 1     7.4000      0.30000E-01  0.20000      0.16000
          3.8000       0.0000      0.61900      0.36500      0.23800
         0.36500      0.10000      0.85000E-01   1.7850       7.1400      /
     64 'GENROU' 1     4.7800      0.41000E-01  0.53000      0.67000E-01
          3.3800       0.0000       1.6026       1.5818      0.28525
         0.45122      0.23079      0.16596       1.9475       7.7900      /
     69 'GENROU' 1     4.0000      0.20000E-01  0.20000      0.50000E-01
          3.0000       0.0000       1.4846      0.83403      0.61720
         0.83403      0.47870      0.40033       1.3900       4.1700      /
     76 'GENROU' 1     8.0000      0.30000E-01  0.20000      0.60000E-01
          3.6700       0.0000       1.2009      0.84062      0.46099
         0.84062      0.32024      0.30991       1.3900       4.1700      /
     78 'GENROU' 1     7.2000      0.43000E-01  0.20000      0.79000E-01
          3.4600       0.0000      0.63800      0.42400      0.22800
         0.42400      0.16100      0.12700       1.9675       7.8700      /
    102 'GENROU' 1     6.1200      0.52000E-01   1.5000      0.14400
          3.4600       0.0000       2.1290       2.0740      0.46700
          1.2700      0.31100      0.25000       1.3333       4.0000      /
    111 'GENROU' 1     4.0000      0.51000E-01  0.20000      0.33000E-01
          4.3900       5.0000       2.0548       1.3111      0.62622
          1.3111      0.51468      0.27397       1.7850       7.1400      /
    115 'GENROU' 1     7.8000      0.60000E-01  0.20000      0.11000
          4.1600       0.0000      0.75000      0.53000      0.32000
         0.53000      0.30000      0.21500       1.5500       4.6500      /
    117 'GENROU' 1     4.5000      0.40000E-01  0.50000      0.60000E-01
          3.8200       0.0000       1.7000       1.6500      0.25000
         0.50000      0.19000      0.14000       1.7850       7.1400      /
    137 'GENROU' 1     7.8000      0.60000E-01  0.20000      0.11000
          6.0700       0.0000      0.75000      0.53000      0.32000
         0.53000      0.30000      0.21500       1.5500       4.6500      /
    139 'GENROU' 1     5.3000      0.35000E-01  0.50000      0.77000E-01
          2.8200       0.0000       1.6200       1.5700      0.24500
         0.37600      0.10000      0.95000E-01   2.1060       10.530      /
    143 'GENROU' 1     8.0000      0.50000E-01   1.5000      0.60000E-01
          2.7500       0.0000       1.9500       1.8700      0.34000
          1.0000      0.29000      0.24000       1.3900       4.1700      /
    147 'GENROU' 1     8.4000      0.35000E-01  0.46000      0.70000E-01
          3.4900       0.0000       1.7600       1.5800      0.28500
         0.48500      0.20500      0.15500       1.8429       6.4500      /
    148 'GENROU' 1     4.3000      0.32000E-01  0.43000      0.66000E-01
          3.0300       0.0000       1.7900       1.7150      0.22000
         0.44000      0.10000      0.85000E-01   1.8525       7.4100      /
    158 'GENROU' 1     3.9000      0.32000E-01  0.49000      0.62000E-01
          2.8200       0.0000       1.6400       1.5700      0.24000
         0.43000      0.18500      0.13000       1.9225       7.6900      /
    161 'GENROU' 1     5.2100      0.42000E-01   1.5000      0.42000E-01
          3.0100       0.0000       1.7980       1.7780      0.32400
         0.45000      0.26000      0.19300       1.4800       5.1800      /
    180 'GENROU' 1     3.9000      0.32000E-01  0.54000      0.62000E-01
          2.6400       5.0000       1.8600       1.7800      0.25000
         0.45300      0.10000      0.85000E-01   1.9714       6.9000      /
    181 'GENROU' 1     3.9000      0.32000E-01  0.54000      0.62000E-01
          2.6400       5.0000       1.8600       1.7800      0.25000
         0.45300      0.10000      0.85000E-01   1.9714       6.9000      /
